tests/fuzzer/update_grid.json
{
  "version": "1.0",
  "type": "input",
  "is_batch": false,
  "attributes": {},
  "data": {
    "node": [
      {
        "id": 10,
        "u_rated": 10500.0
      },
      {
        "id": 11,
        "u_rated": 10500.0
      },
      {
        "id": 12,
        "u_rated": 10500.0
      },
      {
        "id": 13,
        "u_rated": 10500.0
      },
      {
        "id": 14,
        "u_rated": 400.0
      }
    ],
    "source": [
      {
        "id": 1,
        "node": 10,
        "status": 1,
        "u_ref": 1.0,
        "u_ref_angle": 0.0,
        "sk": 1000000000.0,
        "rx_ratio": 0.1,
        "z01_ratio": 1.0
      }
    ],
    "line": [
      {
        "id": 20,
        "from_node": 10,
        "to_node": 11,
        "from_status": 1,
        "to_status": 1,
        "r1": 0.25,
        "x1": 0.2,
        "c1": 1e-08,
        "tan1": 0.0,
        "r0": 0.5,
        "x0": 0.4,
        "c0": 1e-08,
        "tan0": 0.0,
        "i_n": 1000.0
      },
      {
        "id": 21,
        "from_node": 11,
        "to_node": 12,
        "from_status": 1,
        "to_status": 1,
        "r1": 0.25,
        "x1": 0.2,
        "c1": 1e-08,
        "tan1": 0.0,
        "r0": 0.5,
        "x0": 0.4,
        "c0": 1e-08,
        "tan0": 0.0,
        "i_n": 1000.0
      },
      {
        "id": 22,
        "from_node": 12,
        "to_node": 13,
        "from_status": 1,
        "to_status": 1,
        "r1": 0.25,
        "x1": 0.2,
        "c1": 1e-08,
        "tan1": 0.0,
        "r0": 0.5,
        "x0": 0.4,
        "c0": 1e-08,
        "tan0": 0.0,
        "i_n": 1000.0
      },
      {
        "id": 23,
        "from_node": 13,
        "to_node": 10,
        "from_status": 1,
        "to_status": 1,
        "r1": 0.25,
        "x1": 0.2,
        "c1": 1e-08,
        "tan1": 0.0,
        "r0": 0.5,
        "x0": 0.4,
        "c0": 1e-08,
        "tan0": 0.0,
        "i_n": 1000.0
      }
    ],
    "transformer": [
      {
        "id": 30,
        "from_node": 13,
        "to_node": 14,
        "from_status": 1,
        "to_status": 1,
        "u1": 10500.0,
        "u2": 400.0,
        "sn": 1000000.0,
        "uk": 0.06,
        "pk": 1000.0,
        "i0": 0.01,
        "p0": 500.0,
        "winding_from": 2,
        "winding_to": 1,
        "clock": 5,
        "tap_side": 0,
        "tap_pos": 0,
        "tap_min": -5,
        "tap_max": 5,
        "tap_nom": 0,
        "tap_size": 100.0
      }
    ],
    "transformer_tap_regulator": [
      {
        "id": 31,
        "regulated_object": 30,
        "status": 1,
        "control_side": 1,
        "u_set": 400.0,
        "u_band": 20.0,
        "line_drop_compensation_r": 0.0,
        "line_drop_compensation_x": 0.0
      }
    ],
    "sym_load": [
      {
        "id": 40,
        "node": 11,
        "status": 1,
        "type": 0,
        "p_specified": 100000.0,
        "q_specified": 20000.0
      },
      {
        "id": 41,
        "node": 14,
        "status": 1,
        "type": 1,
        "p_specified": 20000.0,
        "q_specified": 5000.0
      }
    ],
    "asym_load": [
      {
        "id": 42,
        "node": 12,
        "status": 1,
        "type": 2,
        "p_specified": [
          30000.0,
          20000.0,
          10000.0
        ],
        "q_specified": [
          3000.0,
          2000.0,
          1000.0
        ]
      }
    ],
    "sym_gen": [
      {
        "id": 50,
        "node": 12,
        "status": 1,
        "type": 0,
        "p_specified": 50000.0,
        "q_specified": 0.0
      }
    ],
    "asym_gen": [
      {
        "id": 51,
        "node": 13,
        "status": 1,
        "type": 0,
        "p_specified": [
          10000.0,
          10000.0,
          10000.0
        ],
        "q_specified": [
          0.0,
          0.0,
          0.0
        ]
      }
    ],
    "shunt": [
      {
        "id": 60,
        "node": 11,
        "status": 1,
        "g1": 0.0,
        "b1": 0.0001,
        "g0": 0.0,
        "b0": 0.0001
      }
    ]
  }
}
